
     RDKit          3D

 30 33  0  0  0  0  0  0  0  0999 V2000
  -15.0334   18.9104  -24.7667 C   0  0  2  0  0  0  0  0  0  0  0  0
  -16.1795   18.2396  -25.5224 C   0  0  2  0  0  0  0  0  0  0  0  0
  -15.7250   18.3560  -26.9687 C   0  0  0  0  0  0  0  0  0  0  0  0
  -14.2740   18.1578  -26.9104 N   0  0  0  0  0  0  0  0  0  0  0  0
  -13.8026   18.3681  -25.5264 C   0  0  0  0  0  0  0  0  0  0  0  0
  -13.7533   16.9966  -27.4759 C   0  0  0  0  0  0  0  0  0  0  0  0
  -14.3882   15.8227  -27.2637 N   0  0  0  0  0  0  0  0  0  0  0  0
  -13.9268   14.6619  -27.8039 C   0  0  0  0  0  0  0  0  0  0  0  0
  -12.7843   14.7462  -28.6141 C   0  0  0  0  0  0  0  0  0  0  0  0
  -12.2161   15.9944  -28.7563 C   0  0  0  0  0  0  0  0  0  0  0  0
  -12.6370   17.1414  -28.2157 N   0  0  0  0  0  0  0  0  0  0  0  0
  -11.1396   15.7990  -29.5731 N   0  0  0  0  0  0  0  0  0  0  0  0
  -11.0952   14.4696  -29.8942 C   0  0  0  0  0  0  0  0  0  0  0  0
  -12.0801   13.7973  -29.3324 N   0  0  0  0  0  0  0  0  0  0  0  0
  -10.2281   16.8209  -30.0162 C   0  0  0  0  0  0  0  0  0  0  0  0
  -14.5647   13.4199  -27.6336 N   0  0  0  0  0  0  0  0  0  0  0  0
  -15.7132   13.0818  -27.0095 C   0  0  0  0  0  0  0  0  0  0  0  0
  -16.5392   14.0128  -26.4222 C   0  0  0  0  0  0  0  0  0  0  0  0
  -17.5860   13.3133  -25.8999 N   0  0  0  0  0  0  0  0  0  0  0  0
  -17.5316   11.9922  -26.1408 N   0  0  0  0  0  0  0  0  0  0  0  0
  -16.3901   11.8490  -26.8268 C   0  0  0  0  0  0  0  0  0  0  0  0
  -16.0414   10.6351  -27.3130 O   0  0  0  0  0  0  0  0  0  0  0  0
  -17.0228   10.0370  -28.1506 C   0  0  0  0  0  0  0  0  0  0  0  0
  -18.7088   13.8516  -25.1709 C   0  0  0  0  0  0  0  0  0  0  0  0
  -15.0716   18.6189  -23.3349 N   0  0  0  0  0  0  0  0  0  0  0  0
  -14.6046   19.5379  -22.4177 C   0  0  0  0  0  0  0  0  0  0  0  0
  -15.6858   20.0307  -21.4758 C   0  0  0  0  0  0  0  0  0  0  0  0
  -15.2627   19.9551  -20.0194 C   0  0  0  0  0  0  0  0  0  0  0  0
  -13.4354   19.8991  -22.3676 O   0  0  0  0  0  0  0  0  0  0  0  0
  -17.3399   18.9063  -25.3040 F   0  0  0  0  0  0  0  0  0  0  0  0
  1  2  1  0
  1 25  1  1
  2  3  1  0
  2 30  1  6
  3  4  1  0
  1  5  1  0
  4  5  1  0
  4  6  1  0
  6  7  4  0
  6 11  4  0
  7  8  4  0
  8  9  4  0
  8 16  1  0
  9 14  4  0
  9 10  4  0
 10 11  4  0
 10 12  4  0
 12 13  4  0
 12 15  1  0
 13 14  4  0
 16 17  1  0
 17 18  4  0
 17 21  4  0
 18 19  4  0
 19 20  4  0
 20 21  4  0
 21 22  1  0
 22 23  1  0
 19 24  1  0
 25 26  1  0
 26 29  2  0
 26 27  1  0
 27 28  1  0
M  END
