
     RDKit          3D

 28 31  0  0  0  0  0  0  0  0999 V2000
  -13.2957   14.0193  -28.5654 C   0  0  0  0  0  0  0  0  0  0  0  0
  -13.7320   15.2397  -28.2027 N   0  0  0  0  0  0  0  0  0  0  0  0
  -13.0076   16.3365  -28.5279 C   0  0  0  0  0  0  0  0  0  0  0  0
  -11.8115   16.1832  -29.2212 C   0  0  0  0  0  0  0  0  0  0  0  0
  -11.4697   14.8824  -29.5400 C   0  0  0  0  0  0  0  0  0  0  0  0
  -12.1627   13.7737  -29.2505 N   0  0  0  0  0  0  0  0  0  0  0  0
  -10.2791   14.9101  -30.2143 N   0  0  0  0  0  0  0  0  0  0  0  0
   -9.8474   16.2077  -30.3365 C   0  0  0  0  0  0  0  0  0  0  0  0
  -10.7814   17.0209  -29.7276 C   0  0  0  0  0  0  0  0  0  0  0  0
  -13.4308   17.6077  -28.1559 O   0  0  0  0  0  0  0  0  0  0  0  0
  -14.3449   17.6829  -27.1324 C   0  0  0  0  0  0  0  0  0  0  0  0
  -15.7161   17.6886  -27.3891 C   0  0  0  0  0  0  0  0  0  0  0  0
  -16.6102   17.8179  -26.3303 C   0  0  0  0  0  0  0  0  0  0  0  0
  -16.1290   17.9606  -25.0258 C   0  0  0  0  0  0  0  0  0  0  0  0
  -14.7501   17.9820  -24.7655 C   0  0  0  0  0  0  0  0  0  0  0  0
  -13.8598   17.8472  -25.8318 C   0  0  0  0  0  0  0  0  0  0  0  0
  -14.3548   18.1464  -23.4210 N   0  0  0  0  0  0  0  0  0  0  0  0
  -15.1544   18.4855  -22.3399 C   0  0  0  0  0  0  0  0  0  0  0  0
  -16.1577   17.8951  -21.9597 O   0  0  0  0  0  0  0  0  0  0  0  0
  -14.6318   19.7301  -21.6378 C   0  0  0  0  0  0  0  0  0  0  0  0
  -15.2383   19.9212  -20.2586 C   0  0  0  0  0  0  0  0  0  0  0  0
  -14.0379   12.8757  -28.2501 N   0  0  0  0  0  0  0  0  0  0  0  0
  -15.1637   12.7104  -27.5290 C   0  0  0  0  0  0  0  0  0  0  0  0
  -15.8615   13.6316  -26.7899 C   0  0  0  0  0  0  0  0  0  0  0  0
  -16.9192   12.9628  -26.2501 N   0  0  0  0  0  0  0  0  0  0  0  0
  -16.9647   11.6593  -26.5904 N   0  0  0  0  0  0  0  0  0  0  0  0
  -15.8859   11.5088  -27.3667 C   0  0  0  0  0  0  0  0  0  0  0  0
  -17.9389   13.5107  -25.3905 C   0  0  0  0  0  0  0  0  0  0  0  0
  1  2  4  0
  1  6  4  0
  1 22  1  0
  2  3  4  0
  3 10  1  0
  3  4  4  0
  4  5  4  0
  4  9  4  0
  5  6  4  0
  5  7  4  0
  7  8  4  0
  8  9  4  0
 10 11  1  0
 11 12  4  0
 11 16  4  0
 12 13  4  0
 13 14  4  0
 14 15  4  0
 15 16  4  0
 15 17  1  0
 17 18  1  0
 18 19  2  0
 18 20  1  0
 20 21  1  0
 22 23  1  0
 23 27  4  0
 23 24  4  0
 24 25  4  0
 25 26  4  0
 26 27  4  0
 25 28  1  0
M  END
