obj04
     RDKit          2D

 53 56  0  0  0  0  0  0  0  0999 V2000
    2.0046   -4.9721    0.0000 C   0  0  0  0  0  0  0  0  0  0  0  0
    3.3037   -4.2221    0.0000 C   0  0  0  0  0  0  0  0  0  0  0  0
    2.9918   -2.7549    0.0000 C   0  0  0  0  0  0  0  0  0  0  0  0
    1.5000   -2.5981    0.0000 N   0  0  0  0  0  0  0  0  0  0  0  0
    0.8899   -3.9684    0.0000 C   0  0  0  0  0  0  0  0  0  0  0  0
    0.7500   -1.2990    0.0000 C   0  0  0  0  0  0  0  0  0  0  0  0
    1.5000    0.0000    0.0000 N   0  0  0  0  0  0  0  0  0  0  0  0
    0.7500    1.2990    0.0000 C   0  0  0  0  0  0  0  0  0  0  0  0
   -0.7500    1.2990    0.0000 C   0  0  0  0  0  0  0  0  0  0  0  0
   -1.5000    0.0000    0.0000 C   0  0  0  0  0  0  0  0  0  0  0  0
   -0.7500   -1.2990    0.0000 N   0  0  0  0  0  0  0  0  0  0  0  0
   -2.9672    0.3119    0.0000 N   0  0  0  0  0  0  0  0  0  0  0  0
   -3.1240    1.8037    0.0000 C   0  0  0  0  0  0  0  0  0  0  0  0
   -1.7537    2.4138    0.0000 N   0  0  0  0  0  0  0  0  0  0  0  0
   -4.0819   -0.6918    0.0000 C   0  0  0  0  0  0  0  0  0  0  0  0
    1.5000    2.5981    0.0000 N   0  0  0  0  0  0  0  0  0  0  0  0
    3.0000    2.5981    0.0000 C   0  0  0  0  0  0  0  0  0  0  0  0
    3.8817    1.3846    0.0000 C   0  0  0  0  0  0  0  0  0  0  0  0
    5.3083    1.8481    0.0000 N   0  0  0  0  0  0  0  0  0  0  0  0
    5.3083    3.3481    0.0000 N   0  0  0  0  0  0  0  0  0  0  0  0
    3.8817    3.8116    0.0000 C   0  0  0  0  0  0  0  0  0  0  0  0
    3.4182    5.2382    0.0000 O   0  0  0  0  0  0  0  0  0  0  0  0
    4.4218    6.3529    0.0000 C   0  0  0  0  0  0  0  0  0  0  0  0
    6.5218    0.9664    0.0000 C   0  0  0  0  0  0  0  0  0  0  0  0
    0.8899   -5.9758    0.0000 N   0  0  0  0  0  0  0  0  0  0  0  0
    1.2018   -7.4430    0.0000 C   0  0  0  0  0  0  0  0  0  0  0  0
    0.0870   -8.4467    0.0000 C   0  0  0  0  0  0  0  0  0  0  0  0
   -1.0277   -9.4504    0.0000 C   0  0  0  0  0  0  0  0  0  0  0  0
    2.6283   -7.9065    0.0000 O   0  0  0  0  0  0  0  0  0  0  0  0
    3.9138   -5.5924    0.0000 F   0  0  0  0  0  0  0  0  0  0  0  0
    4.7302   -3.7586    0.0000 H   0  0  0  0  0  0  0  0  0  0  0  0
    2.9918   -1.2549    0.0000 H   0  0  0  0  0  0  0  0  0  0  0  0
    4.4836   -2.5981    0.0000 H   0  0  0  0  0  0  0  0  0  0  0  0
    0.0612   -4.8570    0.0000 H   0  0  0  0  0  0  0  0  0  0  0  0
   -0.4091   -3.2184    0.0000 H   0  0  0  0  0  0  0  0  0  0  0  0
   -4.4231    2.5537    0.0000 H   0  0  0  0  0  0  0  0  0  0  0  0
   -5.0856    0.4229    0.0000 H   0  0  0  0  0  0  0  0  0  0  0  0
    2.8863   -6.1856    0.0000 H   0  0  0  0  0  0  0  0  0  0  0  0
   -3.0782   -1.8065    0.0000 H   0  0  0  0  0  0  0  0  0  0  0  0
   -5.1967   -1.6955    0.0000 H   0  0  0  0  0  0  0  0  0  0  0  0
    0.7500    3.8971    0.0000 H   0  0  0  0  0  0  0  0  0  0  0  0
    3.4182   -0.0420    0.0000 H   0  0  0  0  0  0  0  0  0  0  0  0
    3.3071    7.3566    0.0000 H   0  0  0  0  0  0  0  0  0  0  0  0
    5.5366    5.3492    0.0000 H   0  0  0  0  0  0  0  0  0  0  0  0
    5.4255    7.4676    0.0000 H   0  0  0  0  0  0  0  0  0  0  0  0
    7.4035    2.1799    0.0000 H   0  0  0  0  0  0  0  0  0  0  0  0
    5.6401   -0.2471    0.0000 H   0  0  0  0  0  0  0  0  0  0  0  0
    7.7353    0.0847    0.0000 H   0  0  0  0  0  0  0  0  0  0  0  0
   -0.3028   -5.7440    0.0000 H   0  0  0  0  0  0  0  0  0  0  0  0
    1.0907   -9.5614    0.0000 H   0  0  0  0  0  0  0  0  0  0  0  0
   -0.9167   -7.3320    0.0000 H   0  0  0  0  0  0  0  0  0  0  0  0
   -2.4543   -8.9869    0.0000 H   0  0  0  0  0  0  0  0  0  0  0  0
   -0.7158  -10.9176    0.0000 H   0  0  0  0  0  0  0  0  0  0  0  0
  1  2  1  0
  1 25  1  0
  1 38  1  1
  2  3  1  0
  2 30  1  0
  2 31  1  6
  3  4  1  0
  3 32  1  0
  3 33  1  0
  1  5  1  0
  4  5  1  0
  5 34  1  0
  5 35  1  0
  4  6  1  0
  6  7  2  0
  6 11  1  0
  7  8  1  0
  8  9  2  0
  8 16  1  0
  9 14  1  0
  9 10  1  0
 10 11  2  0
 10 12  1  0
 12 13  1  0
 12 15  1  0
 13 14  2  0
 13 36  1  0
 15 37  1  0
 15 39  1  0
 15 40  1  0
 16 41  1  0
 16 17  1  0
 17 18  2  0
 17 21  1  0
 18 19  1  0
 18 42  1  0
 19 20  1  0
 20 21  2  0
 21 22  1  0
 22 23  1  0
 23 43  1  0
 23 44  1  0
 23 45  1  0
 19 24  1  0
 24 46  1  0
 24 47  1  0
 24 48  1  0
 25 26  1  0
 25 49  1  0
 26 29  2  0
 26 27  1  0
 27 28  1  0
 27 50  1  0
 27 51  1  0
 28 52  1  0
 28 53  1  0
M  END
