obj03
     RDKit          2D

 59 62  0  0  0  0  0  0  0  0999 V2000
    2.0046   -4.9721    0.0000 C   0  0  0  0  0  0  0  0  0  0  0  0
    3.3037   -4.2221    0.0000 C   0  0  0  0  0  0  0  0  0  0  0  0
    2.9918   -2.7549    0.0000 C   0  0  0  0  0  0  0  0  0  0  0  0
    1.5000   -2.5981    0.0000 N   0  0  0  0  0  0  0  0  0  0  0  0
    0.8899   -3.9684    0.0000 C   0  0  0  0  0  0  0  0  0  0  0  0
    0.7500   -1.2990    0.0000 C   0  0  0  0  0  0  0  0  0  0  0  0
    1.5000    0.0000    0.0000 N   0  0  0  0  0  0  0  0  0  0  0  0
    0.7500    1.2990    0.0000 C   0  0  0  0  0  0  0  0  0  0  0  0
   -0.7500    1.2990    0.0000 C   0  0  0  0  0  0  0  0  0  0  0  0
   -1.5000    0.0000    0.0000 C   0  0  0  0  0  0  0  0  0  0  0  0
   -0.7500   -1.2990    0.0000 N   0  0  0  0  0  0  0  0  0  0  0  0
   -2.9672    0.3119    0.0000 N   0  0  0  0  0  0  0  0  0  0  0  0
   -3.1240    1.8037    0.0000 C   0  0  0  0  0  0  0  0  0  0  0  0
   -1.7537    2.4138    0.0000 N   0  0  0  0  0  0  0  0  0  0  0  0
   -4.0819   -0.6918    0.0000 C   0  0  0  0  0  0  0  0  0  0  0  0
   -3.0782   -1.8065    0.0000 C   0  0  0  0  0  0  0  0  0  0  0  0
   -5.1967   -1.6955    0.0000 C   0  0  0  0  0  0  0  0  0  0  0  0
    1.5000    2.5981    0.0000 N   0  0  0  0  0  0  0  0  0  0  0  0
    0.7500    3.8971    0.0000 C   0  0  0  0  0  0  0  0  0  0  0  0
   -0.7418    4.0539    0.0000 C   0  0  0  0  0  0  0  0  0  0  0  0
   -1.0537    5.5211    0.0000 N   0  0  0  0  0  0  0  0  0  0  0  0
    0.2454    6.2711    0.0000 N   0  0  0  0  0  0  0  0  0  0  0  0
    1.3601    5.2674    0.0000 C   0  0  0  0  0  0  0  0  0  0  0  0
    2.8273    5.5793    0.0000 O   0  0  0  0  0  0  0  0  0  0  0  0
    3.2909    7.0059    0.0000 C   0  0  0  0  0  0  0  0  0  0  0  0
   -2.4240    6.1312    0.0000 C   0  0  0  0  0  0  0  0  0  0  0  0
    0.8899   -5.9758    0.0000 N   0  0  0  0  0  0  0  0  0  0  0  0
    1.2018   -7.4430    0.0000 C   0  0  0  0  0  0  0  0  0  0  0  0
    0.0870   -8.4467    0.0000 C   0  0  0  0  0  0  0  0  0  0  0  0
   -1.0277   -9.4504    0.0000 C   0  0  0  0  0  0  0  0  0  0  0  0
    2.6283   -7.9065    0.0000 O   0  0  0  0  0  0  0  0  0  0  0  0
    3.9138   -5.5924    0.0000 F   0  0  0  0  0  0  0  0  0  0  0  0
    4.7302   -3.7586    0.0000 H   0  0  0  0  0  0  0  0  0  0  0  0
    2.9918   -1.2549    0.0000 H   0  0  0  0  0  0  0  0  0  0  0  0
    4.4836   -2.5981    0.0000 H   0  0  0  0  0  0  0  0  0  0  0  0
    0.0612   -4.8570    0.0000 H   0  0  0  0  0  0  0  0  0  0  0  0
   -0.4091   -3.2184    0.0000 H   0  0  0  0  0  0  0  0  0  0  0  0
   -4.4231    2.5537    0.0000 H   0  0  0  0  0  0  0  0  0  0  0  0
   -5.0856    0.4229    0.0000 H   0  0  0  0  0  0  0  0  0  0  0  0
    2.8863   -6.1856    0.0000 H   0  0  0  0  0  0  0  0  0  0  0  0
   -3.6593   -2.4750    0.0000 H   0  0  0  0  0  0  0  0  0  0  0  0
   -1.9635   -0.8028    0.0000 H   0  0  0  0  0  0  0  0  0  0  0  0
   -2.0745   -2.9213    0.0000 H   0  0  0  0  0  0  0  0  0  0  0  0
   -4.6886   -2.4211    0.0000 H   0  0  0  0  0  0  0  0  0  0  0  0
   -6.2004   -0.5808    0.0000 H   0  0  0  0  0  0  0  0  0  0  0  0
   -6.3114   -2.6992    0.0000 H   0  0  0  0  0  0  0  0  0  0  0  0
    3.0000    2.5981    0.0000 H   0  0  0  0  0  0  0  0  0  0  0  0
   -1.7491    3.3745    0.0000 H   0  0  0  0  0  0  0  0  0  0  0  0
    4.7174    6.5424    0.0000 H   0  0  0  0  0  0  0  0  0  0  0  0
    1.8643    7.4694    0.0000 H   0  0  0  0  0  0  0  0  0  0  0  0
    3.7544    8.4325    0.0000 H   0  0  0  0  0  0  0  0  0  0  0  0
   -1.8139    7.5016    0.0000 H   0  0  0  0  0  0  0  0  0  0  0  0
   -3.0341    4.7609    0.0000 H   0  0  0  0  0  0  0  0  0  0  0  0
   -3.7943    6.7413    0.0000 H   0  0  0  0  0  0  0  0  0  0  0  0
   -0.3028   -5.7440    0.0000 H   0  0  0  0  0  0  0  0  0  0  0  0
    1.0907   -9.5614    0.0000 H   0  0  0  0  0  0  0  0  0  0  0  0
   -0.9167   -7.3320    0.0000 H   0  0  0  0  0  0  0  0  0  0  0  0
   -2.4543   -8.9869    0.0000 H   0  0  0  0  0  0  0  0  0  0  0  0
   -0.7158  -10.9176    0.0000 H   0  0  0  0  0  0  0  0  0  0  0  0
  1  2  1  0
  1 27  1  0
  1 40  1  1
  2  3  1  0
  2 32  1  0
  2 33  1  6
  3  4  1  0
  3 34  1  0
  3 35  1  0
  1  5  1  0
  4  5  1  0
  5 36  1  0
  5 37  1  0
  4  6  1  0
  6  7  2  0
  6 11  1  0
  7  8  1  0
  8  9  2  0
  8 18  1  0
  9 14  1  0
  9 10  1  0
 10 11  2  0
 10 12  1  0
 12 13  1  0
 12 15  1  0
 13 14  2  0
 13 38  1  0
 15 16  1  0
 15 17  1  0
 15 39  1  0
 16 41  1  0
 16 42  1  0
 16 43  1  0
 17 44  1  0
 17 45  1  0
 17 46  1  0
 18 19  1  0
 18 47  1  0
 19 23  1  0
 19 20  2  0
 20 21  1  0
 20 48  1  0
 21 22  1  0
 22 23  2  0
 23 24  1  0
 24 25  1  0
 25 49  1  0
 25 50  1  0
 25 51  1  0
 21 26  1  0
 26 52  1  0
 26 53  1  0
 26 54  1  0
 27 28  1  0
 27 55  1  0
 28 29  1  0
 28 31  2  0
 29 30  1  0
 29 56  1  0
 29 57  1  0
 30 58  1  0
 30 59  1  0
M  END
