obj03
  PyMOL3.1          3D                             0

 59 62  0  0  0  0  0  0  0  0999 V2000
  -15.2550   18.1770  -25.1370 C   0  0  0  0  0  0  0  0  0  0  0  0
  -14.5940   19.0800  -26.1560 C   0  0  0  0  0  0  0  0  0  0  0  0
  -13.3650   18.2850  -26.5900 C   0  0  0  0  0  0  0  0  0  0  0  0
  -13.8670   16.9260  -26.5650 N   0  0  0  0  0  0  0  0  0  0  0  0
  -15.0440   16.7680  -25.7180 C   0  0  0  0  0  0  0  0  0  0  0  0
  -13.2890   15.8880  -27.2500 C   0  0  0  0  0  0  0  0  0  0  0  0
  -13.8630   14.6600  -27.1340 N   0  0  0  0  0  0  0  0  0  0  0  0
  -13.3590   13.5360  -27.7500 C   0  0  0  0  0  0  0  0  0  0  0  0
  -12.1850   13.7140  -28.5270 C   0  0  0  0  0  0  0  0  0  0  0  0
  -11.6770   15.0110  -28.5970 C   0  0  0  0  0  0  0  0  0  0  0  0
  -12.1750   16.1180  -27.9940 N   0  0  0  0  0  0  0  0  0  0  0  0
  -10.5720   14.9370  -29.4010 N   0  0  0  0  0  0  0  0  0  0  0  0
  -10.4560   13.6120  -29.7740 C   0  0  0  0  0  0  0  0  0  0  0  0
  -11.4110   12.8560  -29.2660 N   0  0  0  0  0  0  0  0  0  0  0  0
   -9.7210   16.0850  -29.7610 C   0  0  0  0  0  0  0  0  0  0  0  0
  -10.3250   16.8580  -30.9410 C   0  0  0  0  0  0  0  0  0  0  0  0
   -8.2790   15.6920  -30.1110 C   0  0  0  0  0  0  0  0  0  0  0  0
  -13.9980   12.2920  -27.6130 N   0  0  0  0  0  0  0  0  0  0  0  0
  -15.1540   12.0070  -26.9390 C   0  0  0  0  0  0  0  0  0  0  0  0
  -15.8450   12.6960  -25.9520 C   0  0  0  0  0  0  0  0  0  0  0  0
  -16.9450   11.9390  -25.6690 N   0  0  0  0  0  0  0  0  0  0  0  0
  -17.0260   10.8090  -26.3960 N   0  0  0  0  0  0  0  0  0  0  0  0
  -15.9280   10.8610  -27.1680 C   0  0  0  0  0  0  0  0  0  0  0  0
  -15.6010    9.9010  -28.0860 O   0  0  0  0  0  0  0  0  0  0  0  0
  -16.5000    8.7950  -28.2060 C   0  0  0  0  0  0  0  0  0  0  0  0
  -17.9760   12.2420  -24.7060 C   0  0  0  0  0  0  0  0  0  0  0  0
  -14.5520   18.3230  -23.8540 N   0  0  0  0  0  0  0  0  0  0  0  0
  -15.0070   17.8060  -22.6520 C   0  0  0  0  0  0  0  0  0  0  0  0
  -14.0370   18.1460  -21.5240 C   0  0  0  0  0  0  0  0  0  0  0  0
  -14.3590   17.4680  -20.2000 C   0  0  0  0  0  0  0  0  0  0  0  0
  -16.0440   17.1650  -22.5060 O   0  0  0  0  0  0  0  0  0  0  0  0
  -15.4450   19.2290  -27.2150 F   0  0  0  0  0  0  0  0  0  0  0  0
  -14.3440   20.0709  -25.7768 H   0  0  0  0  0  0  0  0  0  0  0  0
  -12.4909   18.4442  -25.9585 H   0  0  0  0  0  0  0  0  0  0  0  0
  -13.0397   18.5704  -27.5904 H   0  0  0  0  0  0  0  0  0  0  0  0
  -15.9130   16.3967  -26.2613 H   0  0  0  0  0  0  0  0  0  0  0  0
  -14.8612   16.0417  -24.9260 H   0  0  0  0  0  0  0  0  0  0  0  0
   -9.6624   13.2324  -30.4176 H   0  0  0  0  0  0  0  0  0  0  0  0
   -9.6835   16.7132  -28.8710 H   0  0  0  0  0  0  0  0  0  0  0  0
  -16.3076   18.3969  -24.9587 H   0  0  0  0  0  0  0  0  0  0  0  0
  -11.2248   17.3776  -30.6118 H   0  0  0  0  0  0  0  0  0  0  0  0
   -9.6006   17.5846  -31.3090 H   0  0  0  0  0  0  0  0  0  0  0  0
  -10.5800   16.1617  -31.7399 H   0  0  0  0  0  0  0  0  0  0  0  0
   -7.6179   15.9695  -29.2900 H   0  0  0  0  0  0  0  0  0  0  0  0
   -8.2243   14.6155  -30.2728 H   0  0  0  0  0  0  0  0  0  0  0  0
   -7.9698   16.2124  -31.0175 H   0  0  0  0  0  0  0  0  0  0  0  0
  -13.5479   11.5111  -28.0688 H   0  0  0  0  0  0  0  0  0  0  0  0
  -15.5665   13.6463  -25.4965 H   0  0  0  0  0  0  0  0  0  0  0  0
  -17.4165    9.1240  -28.6959 H   0  0  0  0  0  0  0  0  0  0  0  0
  -16.0331    8.0093  -28.7999 H   0  0  0  0  0  0  0  0  0  0  0  0
  -16.7370    8.4094  -27.2144 H   0  0  0  0  0  0  0  0  0  0  0  0
  -18.8901   11.7125  -24.9745 H   0  0  0  0  0  0  0  0  0  0  0  0
  -17.6519   11.9263  -23.7144 H   0  0  0  0  0  0  0  0  0  0  0  0
  -18.1663   13.3153  -24.7021 H   0  0  0  0  0  0  0  0  0  0  0  0
  -13.6805   18.8335  -23.8486 H   0  0  0  0  0  0  0  0  0  0  0  0
  -14.1179   19.2196  -21.3541 H   0  0  0  0  0  0  0  0  0  0  0  0
  -13.0358   17.8425  -21.8299 H   0  0  0  0  0  0  0  0  0  0  0  0
  -13.6912   17.8855  -19.4465 H   0  0  0  0  0  0  0  0  0  0  0  0
  -15.4056   17.6534  -19.9583 H   0  0  0  0  0  0  0  0  0  0  0  0
  1  2  1  0  0  0  0
  1 27  1  0  0  0  0
  1 40  1  0  0  0  0
  2  3  1  0  0  0  0
  2 32  1  0  0  0  0
  2 33  1  0  0  0  0
  3  4  1  0  0  0  0
  3 34  1  0  0  0  0
  3 35  1  0  0  0  0
  1  5  1  0  0  0  0
  4  5  1  0  0  0  0
  5 36  1  0  0  0  0
  5 37  1  0  0  0  0
  4  6  1  0  0  0  0
  6  7  4  0  0  0  0
  6 11  4  0  0  0  0
  7  8  4  0  0  0  0
  8  9  4  0  0  0  0
  8 18  1  0  0  0  0
  9 14  4  0  0  0  0
  9 10  4  0  0  0  0
 10 11  4  0  0  0  0
 10 12  4  0  0  0  0
 12 13  4  0  0  0  0
 12 15  1  0  0  0  0
 13 14  4  0  0  0  0
 13 38  1  0  0  0  0
 15 16  1  0  0  0  0
 15 17  1  0  0  0  0
 15 39  1  0  0  0  0
 16 41  1  0  0  0  0
 16 42  1  0  0  0  0
 16 43  1  0  0  0  0
 17 44  1  0  0  0  0
 17 45  1  0  0  0  0
 17 46  1  0  0  0  0
 18 19  1  0  0  0  0
 18 47  1  0  0  0  0
 19 23  4  0  0  0  0
 19 20  4  0  0  0  0
 20 21  4  0  0  0  0
 20 48  1  0  0  0  0
 21 22  4  0  0  0  0
 22 23  4  0  0  0  0
 23 24  1  0  0  0  0
 24 25  1  0  0  0  0
 25 49  1  0  0  0  0
 25 50  1  0  0  0  0
 25 51  1  0  0  0  0
 21 26  1  0  0  0  0
 26 52  1  0  0  0  0
 26 53  1  0  0  0  0
 26 54  1  0  0  0  0
 27 28  1  0  0  0  0
 27 55  1  0  0  0  0
 28 29  1  0  0  0  0
 28 31  2  0  0  0  0
 29 30  1  0  0  0  0
 29 56  1  0  0  0  0
 29 57  1  0  0  0  0
 30 58  1  0  0  0  0
 30 59  1  0  0  0  0
M  END
$$$$
