obj02
  PyMOL3.1          3D                             0

 55 58  0  0  0  0  0  0  0  0999 V2000
  -15.2510   18.2580  -25.2380 C   0  0  0  0  0  0  0  0  0  0  0  0
  -14.6040   19.1860  -26.2470 C   0  0  0  0  0  0  0  0  0  0  0  0
  -13.3840   18.4120  -26.7340 C   0  0  0  0  0  0  0  0  0  0  0  0
  -13.8590   17.0450  -26.6900 N   0  0  0  0  0  0  0  0  0  0  0  0
  -15.0170   16.8630  -25.8240 C   0  0  0  0  0  0  0  0  0  0  0  0
  -13.2780   16.0040  -27.3730 C   0  0  0  0  0  0  0  0  0  0  0  0
  -13.8400   14.7730  -27.2160 N   0  0  0  0  0  0  0  0  0  0  0  0
  -13.3460   13.6350  -27.8120 C   0  0  0  0  0  0  0  0  0  0  0  0
  -12.1870   13.8010  -28.6220 C   0  0  0  0  0  0  0  0  0  0  0  0
  -11.6860   15.1020  -28.7310 C   0  0  0  0  0  0  0  0  0  0  0  0
  -12.1790   16.2270  -28.1450 N   0  0  0  0  0  0  0  0  0  0  0  0
  -10.5940   15.0140  -29.5490 N   0  0  0  0  0  0  0  0  0  0  0  0
  -10.4750   13.6790  -29.8950 C   0  0  0  0  0  0  0  0  0  0  0  0
  -11.4160   12.9290  -29.3560 N   0  0  0  0  0  0  0  0  0  0  0  0
   -9.7540   16.1600  -29.9430 C   0  0  0  0  0  0  0  0  0  0  0  0
  -10.3700   16.9000  -31.1340 C   0  0  0  0  0  0  0  0  0  0  0  0
   -8.3040   15.7750  -30.2900 C   0  0  0  0  0  0  0  0  0  0  0  0
  -13.9800   12.3900  -27.6100 N   0  0  0  0  0  0  0  0  0  0  0  0
  -15.1060   12.0990  -26.8760 C   0  0  0  0  0  0  0  0  0  0  0  0
  -15.9450   12.9230  -26.1370 C   0  0  0  0  0  0  0  0  0  0  0  0
  -16.9070   12.1160  -25.6210 N   0  0  0  0  0  0  0  0  0  0  0  0
  -16.7670   10.8240  -25.9590 N   0  0  0  0  0  0  0  0  0  0  0  0
  -15.6680   10.8200  -26.7250 C   0  0  0  0  0  0  0  0  0  0  0  0
  -18.0080   12.5190  -24.7810 C   0  0  0  0  0  0  0  0  0  0  0  0
  -14.5500   18.3780  -23.9550 N   0  0  0  0  0  0  0  0  0  0  0  0
  -15.0180   17.8510  -22.7590 C   0  0  0  0  0  0  0  0  0  0  0  0
  -14.0410   18.1580  -21.6300 C   0  0  0  0  0  0  0  0  0  0  0  0
  -14.3920   17.5020  -20.3030 C   0  0  0  0  0  0  0  0  0  0  0  0
  -16.0730   17.2210  -22.6190 O   0  0  0  0  0  0  0  0  0  0  0  0
  -15.4690   19.3650  -27.2880 F   0  0  0  0  0  0  0  0  0  0  0  0
  -14.3471   20.1623  -25.8360 H   0  0  0  0  0  0  0  0  0  0  0  0
  -12.4871   18.5853  -26.1393 H   0  0  0  0  0  0  0  0  0  0  0  0
  -13.1072   18.7037  -27.7471 H   0  0  0  0  0  0  0  0  0  0  0  0
  -15.8863   16.4757  -26.3554 H   0  0  0  0  0  0  0  0  0  0  0  0
  -14.8052   16.1397  -25.0365 H   0  0  0  0  0  0  0  0  0  0  0  0
   -9.6891   13.2902  -30.5425 H   0  0  0  0  0  0  0  0  0  0  0  0
   -9.7180   16.8077  -29.0670 H   0  0  0  0  0  0  0  0  0  0  0  0
  -16.3052   18.4744  -25.0648 H   0  0  0  0  0  0  0  0  0  0  0  0
  -11.2701   17.4226  -30.8102 H   0  0  0  0  0  0  0  0  0  0  0  0
   -9.6524   17.6214  -31.5248 H   0  0  0  0  0  0  0  0  0  0  0  0
  -10.6273   16.1835  -31.9141 H   0  0  0  0  0  0  0  0  0  0  0  0
   -7.6477   16.0527  -29.4653 H   0  0  0  0  0  0  0  0  0  0  0  0
   -8.2428   14.6994  -30.4559 H   0  0  0  0  0  0  0  0  0  0  0  0
   -7.9941   16.3007  -31.1931 H   0  0  0  0  0  0  0  0  0  0  0  0
  -13.5456   11.6022  -28.0691 H   0  0  0  0  0  0  0  0  0  0  0  0
  -15.8502   14.0001  -25.9992 H   0  0  0  0  0  0  0  0  0  0  0  0
  -15.2542    9.9211  -27.1821 H   0  0  0  0  0  0  0  0  0  0  0  0
  -18.8888   11.9265  -25.0284 H   0  0  0  0  0  0  0  0  0  0  0  0
  -17.7453   12.3592  -23.7353 H   0  0  0  0  0  0  0  0  0  0  0  0
  -18.2233   13.5749  -24.9449 H   0  0  0  0  0  0  0  0  0  0  0  0
  -13.6712   18.8756  -23.9409 H   0  0  0  0  0  0  0  0  0  0  0  0
  -14.0820   19.2348  -21.4662 H   0  0  0  0  0  0  0  0  0  0  0  0
  -13.0515   17.8136  -21.9307 H   0  0  0  0  0  0  0  0  0  0  0  0
  -13.7453   17.9430  -19.5444 H   0  0  0  0  0  0  0  0  0  0  0  0
  -15.4473   17.6806  -20.0966 H   0  0  0  0  0  0  0  0  0  0  0  0
  1  2  1  0  0  0  0
  1 25  1  0  0  0  0
  1 38  1  0  0  0  0
  2  3  1  0  0  0  0
  2 30  1  0  0  0  0
  2 31  1  0  0  0  0
  3  4  1  0  0  0  0
  3 32  1  0  0  0  0
  3 33  1  0  0  0  0
  1  5  1  0  0  0  0
  4  5  1  0  0  0  0
  5 34  1  0  0  0  0
  5 35  1  0  0  0  0
  4  6  1  0  0  0  0
  6  7  4  0  0  0  0
  6 11  4  0  0  0  0
  7  8  4  0  0  0  0
  8  9  4  0  0  0  0
  8 18  1  0  0  0  0
  9 14  4  0  0  0  0
  9 10  4  0  0  0  0
 10 11  4  0  0  0  0
 10 12  4  0  0  0  0
 12 13  4  0  0  0  0
 12 15  1  0  0  0  0
 13 14  4  0  0  0  0
 13 36  1  0  0  0  0
 15 16  1  0  0  0  0
 15 17  1  0  0  0  0
 15 37  1  0  0  0  0
 16 39  1  0  0  0  0
 16 40  1  0  0  0  0
 16 41  1  0  0  0  0
 17 42  1  0  0  0  0
 17 43  1  0  0  0  0
 17 44  1  0  0  0  0
 18 19  1  0  0  0  0
 18 45  1  0  0  0  0
 19 23  4  0  0  0  0
 19 20  4  0  0  0  0
 20 21  4  0  0  0  0
 20 46  1  0  0  0  0
 21 22  4  0  0  0  0
 22 23  4  0  0  0  0
 23 47  1  0  0  0  0
 21 24  1  0  0  0  0
 24 48  1  0  0  0  0
 24 49  1  0  0  0  0
 24 50  1  0  0  0  0
 25 26  1  0  0  0  0
 25 51  1  0  0  0  0
 26 29  2  0  0  0  0
 26 27  1  0  0  0  0
 27 28  1  0  0  0  0
 27 52  1  0  0  0  0
 27 53  1  0  0  0  0
 28 54  1  0  0  0  0
 28 55  1  0  0  0  0
M  END
$$$$
