obj02
  PyMOL3.1          3D                             0

 28 31  0  0  0  0  0  0  0  0999 V2000
  -13.0973   13.5516  -28.4284 C   0  0  0  0  0  0  0  0  0  0  0  0
  -13.4744   14.8275  -28.1288 N   0  0  0  0  0  0  0  0  0  0  0  0
  -12.7422   15.9112  -28.5429 C   0  0  0  0  0  0  0  0  0  0  0  0
  -11.5758   15.6999  -29.2938 C   0  0  0  0  0  0  0  0  0  0  0  0
  -11.2672   14.3578  -29.5533 C   0  0  0  0  0  0  0  0  0  0  0  0
  -11.9743   13.2543  -29.1576 N   0  0  0  0  0  0  0  0  0  0  0  0
  -10.1144   14.3367  -30.2826 N   0  0  0  0  0  0  0  0  0  0  0  0
   -9.6809   15.6236  -30.4953 C   0  0  0  0  0  0  0  0  0  0  0  0
  -10.5644   16.4923  -29.8959 C   0  0  0  0  0  0  0  0  0  0  0  0
  -13.1462   17.2057  -28.2219 O   0  0  0  0  0  0  0  0  0  0  0  0
  -14.1593   17.3356  -27.2935 C   0  0  0  0  0  0  0  0  0  0  0  0
  -15.5265   17.2265  -27.6811 C   0  0  0  0  0  0  0  0  0  0  0  0
  -16.5332   17.3680  -26.6938 C   0  0  0  0  0  0  0  0  0  0  0  0
  -16.1837   17.6178  -25.3348 C   0  0  0  0  0  0  0  0  0  0  0  0
  -14.8071   17.7276  -24.9485 C   0  0  0  0  0  0  0  0  0  0  0  0
  -13.8024   17.5841  -25.9403 C   0  0  0  0  0  0  0  0  0  0  0  0
  -14.3357   17.9866  -23.6308 N   0  0  0  0  0  0  0  0  0  0  0  0
  -14.9909   17.8463  -22.4123 C   0  0  0  0  0  0  0  0  0  0  0  0
  -16.1426   17.4552  -22.2194 O   0  0  0  0  0  0  0  0  0  0  0  0
  -14.0488   18.2713  -21.2879 C   0  0  0  0  0  0  0  0  0  0  0  0
  -14.2799   17.5681  -19.9651 C   0  0  0  0  0  0  0  0  0  0  0  0
  -13.9008   12.4777  -27.9667 N   0  0  0  0  0  0  0  0  0  0  0  0
  -15.0551   12.5095  -27.2246 C   0  0  0  0  0  0  0  0  0  0  0  0
  -15.7574   13.5873  -26.7182 C   0  0  0  0  0  0  0  0  0  0  0  0
  -16.8260   13.0784  -26.0576 N   0  0  0  0  0  0  0  0  0  0  0  0
  -16.8843   11.7373  -26.0875 N   0  0  0  0  0  0  0  0  0  0  0  0
  -15.8037   11.3933  -26.7997 C   0  0  0  0  0  0  0  0  0  0  0  0
  -17.8408   13.8361  -25.3669 C   0  0  0  0  0  0  0  0  0  0  0  0
  1  2  4  0  0  0  0
  1  6  4  0  0  0  0
  1 22  1  0  0  0  0
  2  3  4  0  0  0  0
  3 10  1  0  0  0  0
  3  4  4  0  0  0  0
  4  5  4  0  0  0  0
  4  9  4  0  0  0  0
  5  6  4  0  0  0  0
  5  7  4  0  0  0  0
  7  8  4  0  0  0  0
  8  9  4  0  0  0  0
 10 11  1  0  0  0  0
 11 12  4  0  0  0  0
 11 16  4  0  0  0  0
 12 13  4  0  0  0  0
 13 14  4  0  0  0  0
 14 15  4  0  0  0  0
 15 16  4  0  0  0  0
 15 17  1  0  0  0  0
 17 18  1  0  0  0  0
 18 19  2  0  0  0  0
 18 20  1  0  0  0  0
 20 21  1  0  0  0  0
 22 23  1  0  0  0  0
 23 27  4  0  0  0  0
 23 24  4  0  0  0  0
 24 25  4  0  0  0  0
 25 26  4  0  0  0  0
 26 27  4  0  0  0  0
 25 28  1  0  0  0  0
M  END
$$$$
