obj01
  PyMOL3.1          3D                             0

 30 33  0  0  0  0  0  0  0  0999 V2000
  -15.2510   18.2580  -25.2380 C   0  0  0  0  0  0  0  0  0  0  0  0
  -14.6040   19.1860  -26.2470 C   0  0  0  0  0  0  0  0  0  0  0  0
  -13.3840   18.4120  -26.7340 C   0  0  0  0  0  0  0  0  0  0  0  0
  -13.8590   17.0450  -26.6900 N   0  0  0  0  0  0  0  0  0  0  0  0
  -15.0170   16.8630  -25.8240 C   0  0  0  0  0  0  0  0  0  0  0  0
  -13.2780   16.0040  -27.3730 C   0  0  0  0  0  0  0  0  0  0  0  0
  -13.8400   14.7730  -27.2160 N   0  0  0  0  0  0  0  0  0  0  0  0
  -13.3460   13.6350  -27.8120 C   0  0  0  0  0  0  0  0  0  0  0  0
  -12.1870   13.8010  -28.6220 C   0  0  0  0  0  0  0  0  0  0  0  0
  -11.6860   15.1020  -28.7310 C   0  0  0  0  0  0  0  0  0  0  0  0
  -12.1790   16.2270  -28.1450 N   0  0  0  0  0  0  0  0  0  0  0  0
  -10.5940   15.0140  -29.5490 N   0  0  0  0  0  0  0  0  0  0  0  0
  -10.4750   13.6790  -29.8950 C   0  0  0  0  0  0  0  0  0  0  0  0
  -11.4160   12.9290  -29.3560 N   0  0  0  0  0  0  0  0  0  0  0  0
   -9.7540   16.1600  -29.9430 C   0  0  0  0  0  0  0  0  0  0  0  0
  -10.3700   16.9000  -31.1340 C   0  0  0  0  0  0  0  0  0  0  0  0
   -8.3040   15.7750  -30.2900 C   0  0  0  0  0  0  0  0  0  0  0  0
  -13.9800   12.3900  -27.6100 N   0  0  0  0  0  0  0  0  0  0  0  0
  -15.1060   12.0990  -26.8760 C   0  0  0  0  0  0  0  0  0  0  0  0
  -15.9450   12.9230  -26.1370 C   0  0  0  0  0  0  0  0  0  0  0  0
  -16.9070   12.1160  -25.6210 N   0  0  0  0  0  0  0  0  0  0  0  0
  -16.7670   10.8240  -25.9590 N   0  0  0  0  0  0  0  0  0  0  0  0
  -15.6680   10.8200  -26.7250 C   0  0  0  0  0  0  0  0  0  0  0  0
  -18.0080   12.5190  -24.7810 C   0  0  0  0  0  0  0  0  0  0  0  0
  -14.5500   18.3780  -23.9550 N   0  0  0  0  0  0  0  0  0  0  0  0
  -15.0180   17.8510  -22.7590 C   0  0  0  0  0  0  0  0  0  0  0  0
  -14.0410   18.1580  -21.6300 C   0  0  0  0  0  0  0  0  0  0  0  0
  -14.3920   17.5020  -20.3030 C   0  0  0  0  0  0  0  0  0  0  0  0
  -16.0730   17.2210  -22.6190 O   0  0  0  0  0  0  0  0  0  0  0  0
  -15.4690   19.3650  -27.2880 F   0  0  0  0  0  0  0  0  0  0  0  0
  1  2  1  0  0  0  0
  1 25  1  0  0  0  0
  2  3  1  0  0  0  0
  2 30  1  0  0  0  0
  3  4  1  0  0  0  0
  1  5  1  0  0  0  0
  4  5  1  0  0  0  0
  4  6  1  0  0  0  0
  6  7  4  0  0  0  0
  6 11  4  0  0  0  0
  7  8  4  0  0  0  0
  8  9  4  0  0  0  0
  8 18  1  0  0  0  0
  9 14  4  0  0  0  0
  9 10  4  0  0  0  0
 10 11  4  0  0  0  0
 10 12  4  0  0  0  0
 12 13  4  0  0  0  0
 12 15  1  0  0  0  0
 13 14  4  0  0  0  0
 15 16  1  0  0  0  0
 15 17  1  0  0  0  0
 18 19  1  0  0  0  0
 19 23  4  0  0  0  0
 19 20  4  0  0  0  0
 20 21  4  0  0  0  0
 21 22  4  0  0  0  0
 22 23  4  0  0  0  0
 21 24  1  0  0  0  0
 25 26  1  0  0  0  0
 26 29  2  0  0  0  0
 26 27  1  0  0  0  0
 27 28  1  0  0  0  0
M  END
$$$$
