obj02
 OpenBabel08312523013D

 28 31  0  0  0  0  0  0  0  0999 V2000
  -13.0973   13.5516  -28.4284 C   0  0  0  0  0  0  0  0  0  0  0  0
  -13.4744   14.8275  -28.1288 N   0  0  0  0  0  0  0  0  0  0  0  0
  -12.7422   15.9112  -28.5429 C   0  0  0  0  0  0  0  0  0  0  0  0
  -11.5758   15.6999  -29.2938 C   0  0  0  0  0  0  0  0  0  0  0  0
  -11.2672   14.3578  -29.5533 C   0  0  0  0  0  0  0  0  0  0  0  0
  -11.9743   13.2543  -29.1576 N   0  0  0  0  0  0  0  0  0  0  0  0
  -10.1144   14.3367  -30.2826 N   0  0  0  0  0  0  0  0  0  0  0  0
   -9.6809   15.6236  -30.4953 C   0  0  0  0  0  0  0  0  0  0  0  0
  -10.5644   16.4923  -29.8959 C   0  0  0  0  0  0  0  0  0  0  0  0
  -13.1462   17.2057  -28.2219 O   0  0  0  0  0  0  0  0  0  0  0  0
  -14.1593   17.3356  -27.2935 C   0  0  0  0  0  0  0  0  0  0  0  0
  -15.5265   17.2265  -27.6811 C   0  0  0  0  0  0  0  0  0  0  0  0
  -16.5332   17.3680  -26.6938 C   0  0  0  0  0  0  0  0  0  0  0  0
  -16.1837   17.6178  -25.3348 C   0  0  0  0  0  0  0  0  0  0  0  0
  -14.8071   17.7276  -24.9485 C   0  0  0  0  0  0  0  0  0  0  0  0
  -13.8024   17.5841  -25.9403 C   0  0  0  0  0  0  0  0  0  0  0  0
  -14.3357   17.9866  -23.6308 N   0  0  0  0  0  0  0  0  0  0  0  0
  -14.9909   17.8463  -22.4123 C   0  0  0  0  0  0  0  0  0  0  0  0
  -16.1426   17.4552  -22.2194 O   0  0  0  0  0  0  0  0  0  0  0  0
  -14.0488   18.2713  -21.2879 C   0  0  0  0  0  0  0  0  0  0  0  0
  -14.2799   17.5681  -19.9651 C   0  0  0  0  0  0  0  0  0  0  0  0
  -13.9008   12.4777  -27.9667 N   0  0  0  0  0  0  0  0  0  0  0  0
  -15.0551   12.5095  -27.2246 C   0  0  0  0  0  0  0  0  0  0  0  0
  -15.7574   13.5873  -26.7182 C   0  0  0  0  0  0  0  0  0  0  0  0
  -16.8260   13.0784  -26.0576 N   0  0  0  0  0  0  0  0  0  0  0  0
  -16.8843   11.7373  -26.0875 N   0  0  0  0  0  0  0  0  0  0  0  0
  -15.8037   11.3933  -26.7997 C   0  0  0  0  0  0  0  0  0  0  0  0
  -17.8408   13.8361  -25.3669 C   0  0  0  0  0  0  0  0  0  0  0  0
  1  2  2  0  0  0  0
  1  6  1  0  0  0  0
  1 22  1  0  0  0  0
  2  3  1  0  0  0  0
  3  4  2  0  0  0  0
  3 10  1  0  0  0  0
  4  5  1  0  0  0  0
  4  9  1  0  0  0  0
  5  6  1  0  0  0  0
  5  7  2  0  0  0  0
  7  8  1  0  0  0  0
  8  9  2  0  0  0  0
 10 11  1  0  0  0  0
 11 12  2  0  0  0  0
 11 16  1  0  0  0  0
 12 13  1  0  0  0  0
 13 14  2  0  0  0  0
 14 15  1  0  0  0  0
 15 16  2  0  0  0  0
 15 17  1  0  0  0  0
 17 18  1  0  0  0  0
 18 19  2  0  0  0  0
 18 20  1  0  0  0  0
 20 21  1  0  0  0  0
 22 23  1  0  0  0  0
 23 24  2  0  0  0  0
 23 27  1  0  0  0  0
 24 25  1  0  0  0  0
 25 26  1  0  0  0  0
 25 28  1  0  0  0  0
 26 27  2  0  0  0  0
M  END
$$$$
obj01
 OpenBabel08312523013D

 30 33  0  0  0  0  0  0  0  0999 V2000
  -15.2510   18.2580  -25.2380 C   0  0  1  0  0  0  0  0  0  0  0  0
  -14.6040   19.1860  -26.2470 C   0  0  1  0  0  0  0  0  0  0  0  0
  -13.3840   18.4120  -26.7340 C   0  0  0  0  0  0  0  0  0  0  0  0
  -13.8590   17.0450  -26.6900 N   0  0  0  0  0  0  0  0  0  0  0  0
  -15.0170   16.8630  -25.8240 C   0  0  0  0  0  0  0  0  0  0  0  0
  -13.2780   16.0040  -27.3730 C   0  0  0  0  0  0  0  0  0  0  0  0
  -13.8400   14.7730  -27.2160 N   0  0  0  0  0  0  0  0  0  0  0  0
  -13.3460   13.6350  -27.8120 C   0  0  0  0  0  0  0  0  0  0  0  0
  -12.1870   13.8010  -28.6220 C   0  0  0  0  0  0  0  0  0  0  0  0
  -11.6860   15.1020  -28.7310 C   0  0  0  0  0  0  0  0  0  0  0  0
  -12.1790   16.2270  -28.1450 N   0  0  0  0  0  0  0  0  0  0  0  0
  -10.5940   15.0140  -29.5490 N   0  0  0  0  0  0  0  0  0  0  0  0
  -10.4750   13.6790  -29.8950 C   0  0  0  0  0  0  0  0  0  0  0  0
  -11.4160   12.9290  -29.3560 N   0  0  0  0  0  0  0  0  0  0  0  0
   -9.7540   16.1600  -29.9430 C   0  0  0  0  0  0  0  0  0  0  0  0
  -10.3700   16.9000  -31.1340 C   0  0  0  0  0  0  0  0  0  0  0  0
   -8.3040   15.7750  -30.2900 C   0  0  0  0  0  0  0  0  0  0  0  0
  -13.9800   12.3900  -27.6100 N   0  0  0  0  0  0  0  0  0  0  0  0
  -15.1060   12.0990  -26.8760 C   0  0  0  0  0  0  0  0  0  0  0  0
  -15.9450   12.9230  -26.1370 C   0  0  0  0  0  0  0  0  0  0  0  0
  -16.9070   12.1160  -25.6210 N   0  0  0  0  0  0  0  0  0  0  0  0
  -16.7670   10.8240  -25.9590 N   0  0  0  0  0  0  0  0  0  0  0  0
  -15.6680   10.8200  -26.7250 C   0  0  0  0  0  0  0  0  0  0  0  0
  -18.0080   12.5190  -24.7810 C   0  0  0  0  0  0  0  0  0  0  0  0
  -14.5500   18.3780  -23.9550 N   0  0  0  0  0  0  0  0  0  0  0  0
  -15.0180   17.8510  -22.7590 C   0  0  0  0  0  0  0  0  0  0  0  0
  -14.0410   18.1580  -21.6300 C   0  0  0  0  0  0  0  0  0  0  0  0
  -14.3920   17.5020  -20.3030 C   0  0  0  0  0  0  0  0  0  0  0  0
  -16.0730   17.2210  -22.6190 O   0  0  0  0  0  0  0  0  0  0  0  0
  -15.4690   19.3650  -27.2880 F   0  0  0  0  0  0  0  0  0  0  0  0
  1  2  1  0  0  0  0
  1  5  1  0  0  0  0
  1 25  1  1  0  0  0
  2  3  1  0  0  0  0
  2 30  1  6  0  0  0
  3  4  1  0  0  0  0
  4  5  1  0  0  0  0
  4  6  1  0  0  0  0
  6  7  2  0  0  0  0
  6 11  1  0  0  0  0
  7  8  1  0  0  0  0
  8  9  2  0  0  0  0
  8 18  1  0  0  0  0
  9 10  1  0  0  0  0
  9 14  1  0  0  0  0
 10 11  2  0  0  0  0
 10 12  1  0  0  0  0
 12 13  1  0  0  0  0
 12 15  1  0  0  0  0
 13 14  2  0  0  0  0
 15 16  1  0  0  0  0
 15 17  1  0  0  0  0
 18 19  1  0  0  0  0
 19 20  2  0  0  0  0
 19 23  1  0  0  0  0
 20 21  1  0  0  0  0
 21 22  1  0  0  0  0
 21 24  1  0  0  0  0
 22 23  2  0  0  0  0
 25 26  1  0  0  0  0
 26 27  1  0  0  0  0
 26 29  2  0  0  0  0
 27 28  1  0  0  0  0
M  END
$$$$
obj03
 OpenBabel08312523013D

 32 35  0  0  0  0  0  0  0  0999 V2000
  -15.2550   18.1770  -25.1370 C   0  0  1  0  0  0  0  0  0  0  0  0
  -14.5940   19.0800  -26.1560 C   0  0  1  0  0  0  0  0  0  0  0  0
  -13.3650   18.2850  -26.5900 C   0  0  0  0  0  0  0  0  0  0  0  0
  -13.8670   16.9260  -26.5650 N   0  0  0  0  0  0  0  0  0  0  0  0
  -15.0440   16.7680  -25.7180 C   0  0  0  0  0  0  0  0  0  0  0  0
  -13.2890   15.8880  -27.2500 C   0  0  0  0  0  0  0  0  0  0  0  0
  -13.8630   14.6600  -27.1340 N   0  0  0  0  0  0  0  0  0  0  0  0
  -13.3590   13.5360  -27.7500 C   0  0  0  0  0  0  0  0  0  0  0  0
  -12.1850   13.7140  -28.5270 C   0  0  0  0  0  0  0  0  0  0  0  0
  -11.6770   15.0110  -28.5970 C   0  0  0  0  0  0  0  0  0  0  0  0
  -12.1750   16.1180  -27.9940 N   0  0  0  0  0  0  0  0  0  0  0  0
  -10.5720   14.9370  -29.4010 N   0  0  0  0  0  0  0  0  0  0  0  0
  -10.4560   13.6120  -29.7740 C   0  0  0  0  0  0  0  0  0  0  0  0
  -11.4110   12.8560  -29.2660 N   0  0  0  0  0  0  0  0  0  0  0  0
   -9.7210   16.0850  -29.7610 C   0  0  0  0  0  0  0  0  0  0  0  0
  -10.3250   16.8580  -30.9410 C   0  0  0  0  0  0  0  0  0  0  0  0
   -8.2790   15.6920  -30.1110 C   0  0  0  0  0  0  0  0  0  0  0  0
  -13.9980   12.2920  -27.6130 N   0  0  0  0  0  0  0  0  0  0  0  0
  -15.1540   12.0070  -26.9390 C   0  0  0  0  0  0  0  0  0  0  0  0
  -15.8450   12.6960  -25.9520 C   0  0  0  0  0  0  0  0  0  0  0  0
  -16.9450   11.9390  -25.6690 N   0  0  0  0  0  0  0  0  0  0  0  0
  -17.0260   10.8090  -26.3960 N   0  0  0  0  0  0  0  0  0  0  0  0
  -15.9280   10.8610  -27.1680 C   0  0  0  0  0  0  0  0  0  0  0  0
  -15.6010    9.9010  -28.0860 O   0  0  0  0  0  0  0  0  0  0  0  0
  -16.5000    8.7950  -28.2060 C   0  0  0  0  0  0  0  0  0  0  0  0
  -17.9760   12.2420  -24.7060 C   0  0  0  0  0  0  0  0  0  0  0  0
  -14.5520   18.3230  -23.8540 N   0  0  0  0  0  0  0  0  0  0  0  0
  -15.0070   17.8060  -22.6520 C   0  0  0  0  0  0  0  0  0  0  0  0
  -14.0370   18.1460  -21.5240 C   0  0  0  0  0  0  0  0  0  0  0  0
  -14.3590   17.4680  -20.2000 C   0  0  0  0  0  0  0  0  0  0  0  0
  -16.0440   17.1650  -22.5060 O   0  0  0  0  0  0  0  0  0  0  0  0
  -15.4450   19.2290  -27.2150 F   0  0  0  0  0  0  0  0  0  0  0  0
  1  2  1  0  0  0  0
  1  5  1  0  0  0  0
  1 27  1  1  0  0  0
  2  3  1  0  0  0  0
  2 32  1  6  0  0  0
  3  4  1  0  0  0  0
  4  5  1  0  0  0  0
  4  6  1  0  0  0  0
  6  7  2  0  0  0  0
  6 11  1  0  0  0  0
  7  8  1  0  0  0  0
  8  9  2  0  0  0  0
  8 18  1  0  0  0  0
  9 10  1  0  0  0  0
  9 14  1  0  0  0  0
 10 11  2  0  0  0  0
 10 12  1  0  0  0  0
 12 13  1  0  0  0  0
 12 15  1  0  0  0  0
 13 14  2  0  0  0  0
 15 16  1  0  0  0  0
 15 17  1  0  0  0  0
 18 19  1  0  0  0  0
 19 20  2  0  0  0  0
 19 23  1  0  0  0  0
 20 21  1  0  0  0  0
 21 22  1  0  0  0  0
 21 26  1  0  0  0  0
 22 23  2  0  0  0  0
 23 24  1  0  0  0  0
 24 25  1  0  0  0  0
 27 28  1  0  0  0  0
 28 29  1  0  0  0  0
 28 31  2  0  0  0  0
 29 30  1  0  0  0  0
M  END
$$$$
obj04
 OpenBabel08312523013D

 30 33  0  0  0  0  0  0  0  0999 V2000
  -15.3170   18.0080  -25.0490 C   0  0  1  0  0  0  0  0  0  0  0  0
  -14.6970   18.9160  -26.0950 C   0  0  1  0  0  0  0  0  0  0  0  0
  -13.4440   18.1590  -26.5260 C   0  0  0  0  0  0  0  0  0  0  0  0
  -13.8990   16.7860  -26.4740 N   0  0  0  0  0  0  0  0  0  0  0  0
  -15.0620   16.6030  -25.6110 C   0  0  0  0  0  0  0  0  0  0  0  0
  -13.2960   15.7470  -27.1490 C   0  0  0  0  0  0  0  0  0  0  0  0
  -13.8470   14.5090  -26.9970 N   0  0  0  0  0  0  0  0  0  0  0  0
  -13.3240   13.3790  -27.5890 C   0  0  0  0  0  0  0  0  0  0  0  0
  -12.1660   13.5560  -28.3890 C   0  0  0  0  0  0  0  0  0  0  0  0
  -11.6800   14.8600  -28.4990 C   0  0  0  0  0  0  0  0  0  0  0  0
  -12.1910   15.9810  -27.9150 N   0  0  0  0  0  0  0  0  0  0  0  0
  -10.5940   14.7630  -29.3130 N   0  0  0  0  0  0  0  0  0  0  0  0
  -10.4560   13.4440  -29.6560 C   0  0  0  0  0  0  0  0  0  0  0  0
  -11.3900   12.6860  -29.1170 N   0  0  0  0  0  0  0  0  0  0  0  0
   -9.7480   15.8520  -29.7370 C   0  0  0  0  0  0  0  0  0  0  0  0
  -13.9450   12.1250  -27.4310 N   0  0  0  0  0  0  0  0  0  0  0  0
  -15.1190   11.8410  -26.7970 C   0  0  0  0  0  0  0  0  0  0  0  0
  -15.8440   12.5310  -25.8370 C   0  0  0  0  0  0  0  0  0  0  0  0
  -16.9490   11.7730  -25.5900 N   0  0  0  0  0  0  0  0  0  0  0  0
  -17.0040   10.6400  -26.3160 N   0  0  0  0  0  0  0  0  0  0  0  0
  -15.8820   10.6910  -27.0500 C   0  0  0  0  0  0  0  0  0  0  0  0
  -15.5240    9.7320  -27.9550 O   0  0  0  0  0  0  0  0  0  0  0  0
  -16.4200    8.6310  -28.1090 C   0  0  0  0  0  0  0  0  0  0  0  0
  -18.0140   12.0750  -24.6620 C   0  0  0  0  0  0  0  0  0  0  0  0
  -14.6050   18.1890  -23.7740 N   0  0  0  0  0  0  0  0  0  0  0  0
  -15.0610   17.7210  -22.5510 C   0  0  0  0  0  0  0  0  0  0  0  0
  -14.0800   18.0860  -21.4410 C   0  0  0  0  0  0  0  0  0  0  0  0
  -14.3550   17.3890  -20.1160 C   0  0  0  0  0  0  0  0  0  0  0  0
  -16.1100   17.0990  -22.3720 O   0  0  0  0  0  0  0  0  0  0  0  0
  -15.5660   19.0150  -27.1490 F   0  0  0  0  0  0  0  0  0  0  0  0
  1  2  1  0  0  0  0
  1  5  1  0  0  0  0
  1 25  1  1  0  0  0
  2  3  1  0  0  0  0
  2 30  1  6  0  0  0
  3  4  1  0  0  0  0
  4  5  1  0  0  0  0
  4  6  1  0  0  0  0
  6  7  2  0  0  0  0
  6 11  1  0  0  0  0
  7  8  1  0  0  0  0
  8  9  2  0  0  0  0
  8 16  1  0  0  0  0
  9 10  1  0  0  0  0
  9 14  1  0  0  0  0
 10 11  2  0  0  0  0
 10 12  1  0  0  0  0
 12 13  1  0  0  0  0
 12 15  1  0  0  0  0
 13 14  2  0  0  0  0
 16 17  1  0  0  0  0
 17 18  2  0  0  0  0
 17 21  1  0  0  0  0
 18 19  1  0  0  0  0
 19 20  1  0  0  0  0
 19 24  1  0  0  0  0
 20 21  2  0  0  0  0
 21 22  1  0  0  0  0
 22 23  1  0  0  0  0
 25 26  1  0  0  0  0
 26 27  1  0  0  0  0
 26 29  2  0  0  0  0
 27 28  1  0  0  0  0
M  END
$$$$
